=
 OpenBabel08052611323D

 21 21  0  0  1  0  0  0  0  0999 V2000
   44.8780  119.5660    5.9580 C   0  0  0  0  0  0  0  0  0  0  0  0
   44.2980  119.0680    7.1370 C   0  0  0  0  0  3  0  0  0  0  0  0
   44.6860  119.5370    8.4040 C   0  0  0  0  0  0  0  0  0  0  0  0
   45.6590  120.5410    8.4660 C   0  0  0  0  0  0  0  0  0  0  0  0
   46.2460  121.0530    7.3100 C   0  0  0  0  0  3  0  0  0  0  0  0
   45.8550  120.5670    6.0620 C   0  0  0  0  0  3  0  0  0  0  0  0
   46.0390  121.0100    9.6930 O   0  0  0  0  0  0  0  0  0  0  0  0
   46.0090  121.9820    9.6740 H   0  0  0  0  0  0  0  0  0  0  0  0
   44.4400  119.0780    4.5940 C   0  0  1  0  0  3  0  0  0  0  0  0
   44.9870  119.9070    3.5610 O   0  0  0  0  0  0  0  0  0  0  0  0
   45.8100  119.4490    3.2960 H   0  0  0  0  0  0  0  0  0  0  0  0
   44.8740  117.6120    4.3400 C   0  0  0  0  0  2  0  0  0  0  0  0
   46.0570  117.5970    3.4550 N   0  0  0  0  0  0  0  0  0  0  0  0
   45.8080  118.0520    2.5730 H   0  0  0  0  0  0  0  0  0  0  0  0
   46.3840  115.4130    4.4240 C   0  0  0  0  0  1  0  0  0  0  0  0
   46.6180  116.2640    3.1600 C   0  0  0  0  0  0  0  0  0  0  0  0
   45.8950  115.5880    1.9840 C   0  0  0  0  0  1  0  0  0  0  0  0
   48.1300  116.3210    2.8850 C   0  0  0  0  0  1  0  0  0  0  0  0
   44.0050  118.9940    9.6360 C   0  0  0  0  0  2  0  0  0  0  0  0
   42.7520  118.3870    9.3430 O   0  0  0  0  0  0  0  0  0  0  0  0
   42.2500  118.4100   10.1810 H   0  0  0  0  0  0  0  0  0  0  0  0
  1  6  2  0  0  0  0
  1  2  1  0  0  0  0
  2  3  2  0  0  0  0
  3  4  1  0  0  0  0
  3 19  1  0  0  0  0
  4  7  1  0  0  0  0
  5  4  2  0  0  0  0
  6  5  1  0  0  0  0
  8  7  1  0  0  0  0
  9 12  1  6  0  0  0
  9  1  1  0  0  0  0
 10  9  1  0  0  0  0
 11 10  1  0  0  0  0
 13 12  1  0  0  0  0
 14 13  1  0  0  0  0
 16 13  1  0  0  0  0
 16 15  1  0  0  0  0
 17 16  1  0  0  0  0
 18 16  1  0  0  0  0
 20 19  1  0  0  0  0
 20 21  1  0  0  0  0
M  END
>  <MODEL>
1

>  <REMARK>
 VINA RESULT:      -5.0      0.000      0.000
  Name = 
  11 active torsions:
  status: ('A' for Active; 'I' for Inactive)
    1  A    between atoms: C_1  and  C_2
    2  A    between atoms: C_2  and  C_3
    3  A    between atoms: C_2  and  C_4
    4  A    between atoms: C_2  and  N_5
    5  A    between atoms: N_5  and  C_6
    6  A    between atoms: C_6  and  C_7
    7  A    between atoms: C_7  and  C_8
    8  A    between atoms: C_7  and  O_17
    9  A    between atoms: C_10  and  C_15
   10  A    between atoms: C_11  and  O_14
   11  A    between atoms: C_15  and  O_16
                            x       y       z     vdW  Elec       q    Type
                         _______ _______ _______ _____ _____    ______ ____

>  <TORSDO>
F 8

$$$$
=
 OpenBabel08052611323D

 21 21  0  0  1  0  0  0  0  0999 V2000
   44.7560  117.8740    5.2070 C   0  0  0  0  0  0  0  0  0  0  0  0
   45.0220  118.2880    6.5230 C   0  0  0  0  0  3  0  0  0  0  0  0
   45.4170  119.6050    6.8140 C   0  0  0  0  0  0  0  0  0  0  0  0
   45.5200  120.5130    5.7540 C   0  0  0  0  0  0  0  0  0  0  0  0
   45.2580  120.1250    4.4410 C   0  0  0  0  0  3  0  0  0  0  0  0
   44.8760  118.8110    4.1700 C   0  0  0  0  0  3  0  0  0  0  0  0
   45.8980  121.7990    6.0270 O   0  0  0  0  0  0  0  0  0  0  0  0
   46.6720  122.0150    5.4790 H   0  0  0  0  0  0  0  0  0  0  0  0
   44.3040  116.4620    4.8990 C   0  0  1  0  0  3  0  0  0  0  0  0
   43.3490  116.4590    3.8310 O   0  0  0  0  0  0  0  0  0  0  0  0
   43.3020  117.3950    3.5480 H   0  0  0  0  0  0  0  0  0  0  0  0
   45.4940  115.5500    4.5070 C   0  0  0  0  0  2  0  0  0  0  0  0
   46.7240  116.3630    4.4090 N   0  0  0  0  0  0  0  0  0  0  0  0
   46.5130  117.3110    4.7300 H   0  0  0  0  0  0  0  0  0  0  0  0
   46.2770  115.8960    2.0850 C   0  0  0  0  0  1  0  0  0  0  0  0
   47.3340  116.4390    3.0660 C   0  0  0  0  0  0  0  0  0  0  0  0
   47.6590  117.8880    2.6700 C   0  0  0  0  0  1  0  0  0  0  0  0
   48.5960  115.5680    2.9550 C   0  0  0  0  0  1  0  0  0  0  0  0
   45.6560  120.0070    8.2490 C   0  0  0  0  0  2  0  0  0  0  0  0
   45.1000  121.2800    8.5580 O   0  0  0  0  0  0  0  0  0  0  0  0
   45.2140  121.8160    7.7490 H   0  0  0  0  0  0  0  0  0  0  0  0
  1  2  1  0  0  0  0
  2  3  2  0  0  0  0
  3 19  1  0  0  0  0
  4  7  1  0  0  0  0
  4  3  1  0  0  0  0
  5  4  2  0  0  0  0
  6  5  1  0  0  0  0
  6  1  2  0  0  0  0
  8  7  1  0  0  0  0
  9 12  1  6  0  0  0
  9  1  1  0  0  0  0
 10  9  1  0  0  0  0
 11 10  1  0  0  0  0
 13 12  1  0  0  0  0
 13 14  1  0  0  0  0
 15 16  1  0  0  0  0
 16 13  1  0  0  0  0
 17 16  1  0  0  0  0
 18 16  1  0  0  0  0
 19 20  1  0  0  0  0
 21 20  1  0  0  0  0
M  END
>  <MODEL>
2

>  <REMARK>
 VINA RESULT:      -3.7      1.644      2.572
  Name = 
  11 active torsions:
  status: ('A' for Active; 'I' for Inactive)
    1  A    between atoms: C_1  and  C_2
    2  A    between atoms: C_2  and  C_3
    3  A    between atoms: C_2  and  C_4
    4  A    between atoms: C_2  and  N_5
    5  A    between atoms: N_5  and  C_6
    6  A    between atoms: C_6  and  C_7
    7  A    between atoms: C_7  and  C_8
    8  A    between atoms: C_7  and  O_17
    9  A    between atoms: C_10  and  C_15
   10  A    between atoms: C_11  and  O_14
   11  A    between atoms: C_15  and  O_16
                            x       y       z     vdW  Elec       q    Type
                         _______ _______ _______ _____ _____    ______ ____

>  <TORSDO>
F 8

$$$$
=
 OpenBabel08052611323D

 21 21  0  0  1  0  0  0  0  0999 V2000
   44.9720  119.6470    5.8240 C   0  0  0  0  0  0  0  0  0  0  0  0
   45.8340  120.7330    6.0510 C   0  0  0  0  0  3  0  0  0  0  0  0
   46.0990  121.2050    7.3480 C   0  0  0  0  0  0  0  0  0  0  0  0
   45.4950  120.5470    8.4250 C   0  0  0  0  0  0  0  0  0  0  0  0
   44.6400  119.4650    8.2250 C   0  0  0  0  0  3  0  0  0  0  0  0
   44.3810  119.0170    6.9290 C   0  0  0  0  0  3  0  0  0  0  0  0
   45.7510  120.9930    9.6930 O   0  0  0  0  0  0  0  0  0  0  0  0
   46.5930  121.4810    9.6830 H   0  0  0  0  0  0  0  0  0  0  0  0
   44.7100  119.1240    4.4280 C   0  0  1  0  0  3  0  0  0  0  0  0
   45.4250  119.8970    3.4570 O   0  0  0  0  0  0  0  0  0  0  0  0
   46.2380  120.1770    3.9240 H   0  0  0  0  0  0  0  0  0  0  0  0
   45.1230  117.6370    4.2840 C   0  0  0  0  0  2  0  0  0  0  0  0
   46.2020  117.5220    3.2820 N   0  0  0  0  0  0  0  0  0  0  0  0
   45.8830  117.9500    2.4100 H   0  0  0  0  0  0  0  0  0  0  0  0
   46.4900  115.3570    4.3060 C   0  0  0  0  0  1  0  0  0  0  0  0
   46.6660  116.1500    2.9960 C   0  0  0  0  0  0  0  0  0  0  0  0
   45.8160  115.4750    1.9080 C   0  0  0  0  0  1  0  0  0  0  0  0
   48.1520  116.1130    2.6010 C   0  0  0  0  0  1  0  0  0  0  0  0
   47.0610  122.3520    7.5380 C   0  0  0  0  0  2  0  0  0  0  0  0
   48.0040  122.1070    8.5740 O   0  0  0  0  0  0  0  0  0  0  0  0
   48.6510  121.4820    8.1950 H   0  0  0  0  0  0  0  0  0  0  0  0
  1  2  2  0  0  0  0
  1  6  1  0  0  0  0
  2  3  1  0  0  0  0
  3 19  1  0  0  0  0
  3  4  2  0  0  0  0
  4  7  1  0  0  0  0
  5  4  1  0  0  0  0
  6  5  2  0  0  0  0
  8  7  1  0  0  0  0
  9 12  1  1  0  0  0
  9  1  1  0  0  0  0
 10 11  1  0  0  0  0
 10  9  1  0  0  0  0
 13 12  1  0  0  0  0
 14 13  1  0  0  0  0
 16 13  1  0  0  0  0
 16 15  1  0  0  0  0
 17 16  1  0  0  0  0
 18 16  1  0  0  0  0
 19 20  1  0  0  0  0
 21 20  1  0  0  0  0
M  END
>  <MODEL>
3

>  <REMARK>
 VINA RESULT:      -3.4      1.071      2.317
  Name = 
  11 active torsions:
  status: ('A' for Active; 'I' for Inactive)
    1  A    between atoms: C_1  and  C_2
    2  A    between atoms: C_2  and  C_3
    3  A    between atoms: C_2  and  C_4
    4  A    between atoms: C_2  and  N_5
    5  A    between atoms: N_5  and  C_6
    6  A    between atoms: C_6  and  C_7
    7  A    between atoms: C_7  and  C_8
    8  A    between atoms: C_7  and  O_17
    9  A    between atoms: C_10  and  C_15
   10  A    between atoms: C_11  and  O_14
   11  A    between atoms: C_15  and  O_16
                            x       y       z     vdW  Elec       q    Type
                         _______ _______ _______ _____ _____    ______ ____

>  <TORSDO>
F 8

$$$$
